test/data/matpower/nesta_case57_kds__rad.m
%%%%%%%%%%%%%%%%%%%%%%%%%%%%%%%%%%%%%%%%%%%%%%%%%%%%%%%%%%%%%%%%%%%%%%%%%%%
%%%%                                                                  %%%%%
%%%%      NICTA Energy System Test Case Archive (NESTA) - v0.7.0      %%%%%
%%%%               Optimal Power Flow - Radial Topology               %%%%%
%%%%                         05 - June - 2017                         %%%%%
%%%%                                                                  %%%%%
%%%%%%%%%%%%%%%%%%%%%%%%%%%%%%%%%%%%%%%%%%%%%%%%%%%%%%%%%%%%%%%%%%%%%%%%%%%
%
%   A modified version of the IEEE 57 bus network with a quadratic objective used in,
%
%   Kocuk, B. & Dey, S. & Sun, X.A.,
%   "Inexactness of SDP Relaxation and Valid Inequalities for Optimal Power Flow",
%   IEEE Transactions on Power Systems, March, 2015
%
function mpc = nesta_case57_kds__rad
mpc.version = '2';
mpc.baseMVA = 100.0;

%% bus data
%	bus_i	type	Pd	Qd	Gs	Bs	area	Vm	Va	baseKV	zone	Vmax	Vmin
mpc.bus = [
	1	 3	 18.3	 5.57	 0.0	 0.0	 1	    1.04000	    0.00000	 0.0	 1	    1.06000	    0.94000;
	2	 2	 1.0	 28.53	 0.0	 0.0	 1	    1.01000	   -1.18000	 0.0	 1	    1.06000	    0.94000;
	3	 2	 13.7	 6.82	 0.0	 0.0	 1	    0.98500	   -5.97000	 0.0	 1	    1.06000	    0.94000;
	4	 1	 0.0	 0.0	 0.0	 0.0	 1	    0.98100	   -7.32000	 0.0	 1	    1.06000	    0.94000;
	5	 1	 4.3	 1.25	 0.0	 0.0	 1	    0.97600	   -8.52000	 0.0	 1	    1.06000	    0.94000;
	6	 2	 25.0	 0.77	 0.0	 0.0	 1	    0.98000	   -8.65000	 0.0	 1	    1.06000	    0.94000;
	7	 1	 0.0	 0.0	 0.0	 0.0	 1	    0.98400	   -7.58000	 0.0	 1	    1.06000	    0.94000;
	8	 2	 50.0	 7.11	 0.0	 0.0	 1	    1.00500	   -4.45000	 0.0	 1	    1.06000	    0.94000;
	9	 2	 40.3	 8.45	 0.0	 0.0	 1	    0.98000	   -9.56000	 0.0	 1	    1.06000	    0.94000;
	10	 1	 1.7	 0.77	 0.0	 0.0	 1	    0.98600	  -11.43000	 0.0	 1	    1.06000	    0.94000;
	11	 1	 0.0	 0.0	 0.0	 0.0	 1	    0.97400	  -10.17000	 0.0	 1	    1.06000	    0.94000;
	12	 2	 125.7	 7.78	 0.0	 0.0	 1	    1.01500	  -10.46000	 0.0	 1	    1.06000	    0.94000;
	13	 1	 6.0	 0.86	 0.0	 0.0	 1	    0.97900	   -9.79000	 0.0	 1	    1.06000	    0.94000;
	14	 1	 3.5	 1.73	 0.0	 0.0	 1	    0.97000	   -9.33000	 0.0	 1	    1.06000	    0.94000;
	15	 1	 7.3	 1.63	 0.0	 0.0	 1	    0.98800	   -7.18000	 0.0	 1	    1.06000	    0.94000;
	16	 1	 14.3	 0.96	 0.0	 0.0	 1	    1.01300	   -8.85000	 0.0	 1	    1.06000	    0.94000;
	17	 1	 14.0	 2.69	 0.0	 0.0	 1	    1.01700	   -5.39000	 0.0	 1	    1.06000	    0.94000;
	18	 1	 9.1	 3.17	 0.0	 10.0	 1	    1.00100	  -11.71000	 0.0	 1	    1.06000	    0.94000;
	19	 1	 1.1	 0.19	 0.0	 0.0	 1	    0.97000	  -13.20000	 0.0	 1	    1.06000	    0.94000;
	20	 1	 0.8	 0.29	 0.0	 0.0	 1	    0.96400	  -13.41000	 0.0	 1	    1.06000	    0.94000;
	21	 1	 0.0	 0.0	 0.0	 0.0	 1	    1.00800	  -12.89000	 0.0	 1	    1.06000	    0.94000;
	22	 1	 0.0	 0.0	 0.0	 0.0	 1	    1.01000	  -12.84000	 0.0	 1	    1.06000	    0.94000;
	23	 1	 2.1	 0.77	 0.0	 0.0	 1	    1.00800	  -12.91000	 0.0	 1	    1.06000	    0.94000;
	24	 1	 0.0	 0.0	 0.0	 0.0	 1	    0.99900	  -13.25000	 0.0	 1	    1.06000	    0.94000;
	25	 1	 2.1	 1.06	 0.0	 5.9	 1	    0.98200	  -18.13000	 0.0	 1	    1.06000	    0.94000;
	26	 1	 0.0	 0.0	 0.0	 0.0	 1	    0.95900	  -12.95000	 0.0	 1	    1.06000	    0.94000;
	27	 1	 3.1	 0.19	 0.0	 0.0	 1	    0.98200	  -11.48000	 0.0	 1	    1.06000	    0.94000;
	28	 1	 1.5	 0.86	 0.0	 0.0	 1	    0.99700	  -10.45000	 0.0	 1	    1.06000	    0.94000;
	29	 1	 5.7	 0.96	 0.0	 0.0	 1	    1.01000	   -9.75000	 0.0	 1	    1.06000	    0.94000;
	30	 1	 1.2	 0.67	 0.0	 0.0	 1	    0.96200	  -18.68000	 0.0	 1	    1.06000	    0.94000;
	31	 1	 1.9	 0.96	 0.0	 0.0	 1	    0.93600	  -19.34000	 0.0	 1	    1.06000	    0.94000;
	32	 1	 0.5	 0.29	 0.0	 0.0	 1	    0.94900	  -18.46000	 0.0	 1	    1.06000	    0.94000;
	33	 1	 1.3	 0.67	 0.0	 0.0	 1	    0.94700	  -18.50000	 0.0	 1	    1.06000	    0.94000;
	34	 1	 0.0	 0.0	 0.0	 0.0	 1	    0.95900	  -14.10000	 0.0	 1	    1.06000	    0.94000;
	35	 1	 2.0	 0.96	 0.0	 0.0	 1	    0.96600	  -13.86000	 0.0	 1	    1.06000	    0.94000;
	36	 1	 0.0	 0.0	 0.0	 0.0	 1	    0.97600	  -13.59000	 0.0	 1	    1.06000	    0.94000;
	37	 1	 0.0	 0.0	 0.0	 0.0	 1	    0.98500	  -13.41000	 0.0	 1	    1.06000	    0.94000;
	38	 1	 4.7	 2.21	 0.0	 0.0	 1	    1.01300	  -12.71000	 0.0	 1	    1.06000	    0.94000;
	39	 1	 0.0	 0.0	 0.0	 0.0	 1	    0.98300	  -13.46000	 0.0	 1	    1.06000	    0.94000;
	40	 1	 0.0	 0.0	 0.0	 0.0	 1	    0.97300	  -13.62000	 0.0	 1	    1.06000	    0.94000;
	41	 1	 2.1	 0.96	 0.0	 0.0	 1	    0.99600	  -14.05000	 0.0	 1	    1.06000	    0.94000;
	42	 1	 2.4	 1.54	 0.0	 0.0	 1	    0.96600	  -15.50000	 0.0	 1	    1.06000	    0.94000;
	43	 1	 0.7	 0.29	 0.0	 0.0	 1	    1.01000	  -11.33000	 0.0	 1	    1.06000	    0.94000;
	44	 1	 4.0	 0.67	 0.0	 0.0	 1	    1.01700	  -11.86000	 0.0	 1	    1.06000	    0.94000;
	45	 1	 0.0	 0.0	 0.0	 0.0	 1	    1.03600	   -9.25000	 0.0	 1	    1.06000	    0.94000;
	46	 1	 0.0	 0.0	 0.0	 0.0	 1	    1.05000	  -11.89000	 0.0	 1	    1.06000	    0.94000;
	47	 1	 9.9	 3.84	 0.0	 0.0	 1	    1.03300	  -12.49000	 0.0	 1	    1.06000	    0.94000;
	48	 1	 0.0	 0.0	 0.0	 0.0	 1	    1.02700	  -12.59000	 0.0	 1	    1.06000	    0.94000;
	49	 1	 6.0	 2.69	 0.0	 0.0	 1	    1.03600	  -12.92000	 0.0	 1	    1.06000	    0.94000;
	50	 1	 7.0	 3.46	 0.0	 0.0	 1	    1.02300	  -13.39000	 0.0	 1	    1.06000	    0.94000;
	51	 1	 6.0	 1.73	 0.0	 0.0	 1	    1.05200	  -12.52000	 0.0	 1	    1.06000	    0.94000;
	52	 1	 1.6	 0.77	 0.0	 0.0	 1	    0.98000	  -11.47000	 0.0	 1	    1.06000	    0.94000;
	53	 1	 6.7	 3.17	 0.0	 6.3	 1	    0.97100	  -12.23000	 0.0	 1	    1.06000	    0.94000;
	54	 1	 1.4	 0.58	 0.0	 0.0	 1	    0.99600	  -11.69000	 0.0	 1	    1.06000	    0.94000;
	55	 1	 2.3	 1.06	 0.0	 0.0	 1	    1.03100	  -10.78000	 0.0	 1	    1.06000	    0.94000;
	56	 1	 2.5	 0.77	 0.0	 0.0	 1	    0.96800	  -16.04000	 0.0	 1	    1.06000	    0.94000;
	57	 1	 2.2	 0.77	 0.0	 0.0	 1	    0.96500	  -16.56000	 0.0	 1	    1.06000	    0.94000;
];

%% generator data
%	bus	Pg	Qg	Qmax	Qmin	Vg	mBase	status	Pmax	Pmin	Pc1	Pc2	Qc1min	Qc1max	Qc2min	Qc2max	ramp_agc	ramp_10	ramp_30	ramp_q	apf
mpc.gen = [
	1	 128.9	 -16.1	 200.0	 -150.0	 1.04	 100.0	 1	 575.88	 0.0	 0.0	 0.0	 0.0	 0.0	 0.0	 0.0	 0.0	 0.0	 0.0	 0.0	 0.0; % COW
	2	 0.0	 -0.8	 50.0	 -27.0	 1.01	 100.0	 1	 100.0	 0.0	 0.0	 0.0	 0.0	 0.0	 0.0	 0.0	 0.0	 0.0	 0.0	 0.0	 0.0; % SYNC
	3	 40.0	 -1.0	 60.0	 -20.0	 0.985	 100.0	 1	 140.0	 0.0	 0.0	 0.0	 0.0	 0.0	 0.0	 0.0	 0.0	 0.0	 0.0	 0.0	 0.0; % NG
	6	 0.0	 0.8	 25.0	 -18.0	 0.98	 100.0	 1	 100.0	 0.0	 0.0	 0.0	 0.0	 0.0	 0.0	 0.0	 0.0	 0.0	 0.0	 0.0	 0.0; % SYNC
	8	 450.0	 62.1	 200.0	 -150.0	 1.005	 100.0	 1	 550.0	 0.0	 0.0	 0.0	 0.0	 0.0	 0.0	 0.0	 0.0	 0.0	 0.0	 0.0	 0.0; % NG
	9	 0.0	 2.2	 9.0	 -13.0	 0.98	 100.0	 1	 100.0	 0.0	 0.0	 0.0	 0.0	 0.0	 0.0	 0.0	 0.0	 0.0	 0.0	 0.0	 0.0; % SYNC
	12	 310.0	 128.5	 155.0	 -160.0	 1.015	 100.0	 1	 410.0	 0.0	 0.0	 0.0	 0.0	 0.0	 0.0	 0.0	 0.0	 0.0	 0.0	 0.0	 0.0; % NG
];

%% generator cost data
%	2	startup	shutdown	n	c(n-1)	...	c0
mpc.gencost = [
	2	 0.0	 0.0	 3	   0.077579	  20.000000	   0.000000; % COW
	2	 0.0	 0.0	 3	   0.010000	  40.000000	   0.000000; % SYNC
	2	 0.0	 0.0	 3	   0.250000	  20.000000	   0.000000; % NG
	2	 0.0	 0.0	 3	   0.010000	  40.000000	   0.000000; % SYNC
	2	 0.0	 0.0	 3	   0.022222	  20.000000	   0.000000; % NG
	2	 0.0	 0.0	 3	   0.010000	  40.000000	   0.000000; % SYNC
	2	 0.0	 0.0	 3	   0.032258	  20.000000	   0.000000; % NG
];

%% branch data
%	fbus	tbus	r	x	b	rateA	rateB	rateC	ratio	angle	status	angmin	angmax
mpc.branch = [
	1	 2	 0.0083	 0.028	 0.129	 1005	 1005	 1005	 0.0	 0.0	 1	 -30.0	 30.0;
	2	 3	 0.0298	 0.085	 0.0818	 326	 326	 326	 0.0	 0.0	 1	 -30.0	 30.0;
	3	 4	 0.0112	 0.0366	 0.038	 767	 767	 767	 0.0	 0.0	 1	 -30.0	 30.0;
	4	 5	 0.0625	 0.132	 0.0258	 201	 201	 201	 0.0	 0.0	 1	 -30.0	 30.0;
	4	 6	 0.043	 0.148	 0.0348	 191	 191	 191	 0.0	 0.0	 1	 -30.0	 30.0;
	6	 7	 0.02	 0.102	 0.0276	 283	 283	 283	 0.0	 0.0	 1	 -30.0	 30.0;
	8	 9	 0.0099	 0.0505	 0.0548	 570	 570	 570	 0.0	 0.0	 1	 -30.0	 30.0;
	9	 13	 0.0481	 0.158	 0.0406	 178	 178	 178	 0.0	 0.0	 1	 -30.0	 30.0;
	13	 15	 0.0269	 0.0869	 0.023	 323	 323	 323	 0.0	 0.0	 1	 -30.0	 30.0;
	1	 15	 0.0178	 0.091	 0.0988	 317	 317	 317	 0.0	 0.0	 1	 -30.0	 30.0;
	1	 16	 0.0454	 0.206	 0.0546	 140	 140	 140	 0.0	 0.0	 1	 -30.0	 30.0;
	1	 17	 0.0238	 0.108	 0.0286	 266	 266	 266	 0.0	 0.0	 1	 -30.0	 30.0;
	4	 18	 0.0	 0.555	 0.0	 53	 53	 53	 0.0	 0.0	 1	 -30.0	 30.0;
	10	 12	 0.0277	 0.1262	 0.0328	 228	 228	 228	 0.0	 0.0	 1	 -30.0	 30.0;
	11	 13	 0.0223	 0.0732	 0.0188	 384	 384	 384	 0.0	 0.0	 1	 -30.0	 30.0;
	12	 16	 0.018	 0.0813	 0.0216	 353	 353	 353	 0.0	 0.0	 1	 -30.0	 30.0;
	14	 15	 0.0171	 0.0547	 0.0148	 512	 512	 512	 0.0	 0.0	 1	 -30.0	 30.0;
	18	 19	 0.461	 0.685	 0.0	 36	 36	 36	 0.0	 0.0	 1	 -30.0	 30.0;
	19	 20	 0.283	 0.434	 0.0	 57	 57	 57	 0.0	 0.0	 1	 -30.0	 30.0;
	21	 22	 0.0736	 0.117	 0.0	 213	 213	 213	 0.0	 0.0	 1	 -30.0	 30.0;
	22	 23	 0.0099	 0.0152	 0.0	 1617	 1617	 1617	 0.0	 0.0	 1	 -30.0	 30.0;
	23	 24	 0.166	 0.256	 0.0084	 97	 97	 97	 0.0	 0.0	 1	 -30.0	 30.0;
	24	 25	 0.0	 1.182	 0.0	 25	 25	 25	 0.0	 0.0	 1	 -30.0	 30.0;
	24	 26	 0.0	 0.0473	 0.0	 621	 621	 621	 0.0	 0.0	 1	 -30.0	 30.0;
	27	 28	 0.0618	 0.0954	 0.0	 259	 259	 259	 0.0	 0.0	 1	 -30.0	 30.0;
	28	 29	 0.0418	 0.0587	 0.0	 408	 408	 408	 0.0	 0.0	 1	 -30.0	 30.0;
	7	 29	 0.0	 0.0648	 0.0	 453	 453	 453	 0.0	 0.0	 1	 -30.0	 30.0;
	25	 30	 0.135	 0.202	 0.0	 121	 121	 121	 0.0	 0.0	 1	 -30.0	 30.0;
	31	 32	 0.507	 0.755	 0.0	 33	 33	 33	 0.0	 0.0	 1	 -30.0	 30.0;
	32	 33	 0.0392	 0.036	 0.0	 552	 552	 552	 0.0	 0.0	 1	 -30.0	 30.0;
	34	 32	 0.0	 0.953	 0.0	 31	 31	 31	 0.0	 0.0	 1	 -30.0	 30.0;
	34	 35	 0.052	 0.078	 0.0032	 313	 313	 313	 0.0	 0.0	 1	 -30.0	 30.0;
	35	 36	 0.043	 0.0537	 0.0016	 427	 427	 427	 0.0	 0.0	 1	 -30.0	 30.0;
	36	 37	 0.029	 0.0366	 0.0	 629	 629	 629	 0.0	 0.0	 1	 -30.0	 30.0;
	37	 38	 0.0651	 0.1009	 0.002	 245	 245	 245	 0.0	 0.0	 1	 -30.0	 30.0;
	37	 39	 0.0239	 0.0379	 0.0	 655	 655	 655	 0.0	 0.0	 1	 -30.0	 30.0;
	22	 38	 0.0192	 0.0295	 0.0	 834	 834	 834	 0.0	 0.0	 1	 -30.0	 30.0;
	11	 41	 0.0	 0.749	 0.0	 40	 40	 40	 0.0	 0.0	 1	 -30.0	 30.0;
	41	 42	 0.207	 0.352	 0.0	 72	 72	 72	 0.0	 0.0	 1	 -30.0	 30.0;
	38	 44	 0.0289	 0.0585	 0.002	 450	 450	 450	 0.0	 0.0	 1	 -30.0	 30.0;
	15	 45	 0.0	 0.1042	 0.0	 282	 282	 282	 0.0	 0.0	 1	 -30.0	 30.0;
	14	 46	 0.0	 0.0735	 0.0	 400	 400	 400	 0.0	 0.0	 1	 -30.0	 30.0;
	46	 47	 0.023	 0.068	 0.0032	 409	 409	 409	 0.0	 0.0	 1	 -30.0	 30.0;
	48	 49	 0.0834	 0.129	 0.0048	 191	 191	 191	 0.0	 0.0	 1	 -30.0	 30.0;
	49	 50	 0.0801	 0.128	 0.0	 195	 195	 195	 0.0	 0.0	 1	 -30.0	 30.0;
	10	 51	 0.0	 0.0712	 0.0	 412	 412	 412	 0.0	 0.0	 1	 -30.0	 30.0;
	13	 49	 0.0	 0.191	 0.0	 154	 154	 154	 0.0	 0.0	 1	 -30.0	 30.0;
	29	 52	 0.1442	 0.187	 0.0	 125	 125	 125	 0.0	 0.0	 1	 -30.0	 30.0;
	53	 54	 0.1878	 0.232	 0.0	 99	 99	 99	 0.0	 0.0	 1	 -30.0	 30.0;
	54	 55	 0.1732	 0.2265	 0.0	 103	 103	 103	 0.0	 0.0	 1	 -30.0	 30.0;
	11	 43	 0.0	 0.153	 0.0	 192	 192	 192	 0.0	 0.0	 1	 -30.0	 30.0;
	44	 45	 0.0624	 0.1242	 0.004	 212	 212	 212	 0.0	 0.0	 1	 -30.0	 30.0;
	40	 56	 0.0	 1.195	 0.0	 25	 25	 25	 0.0	 0.0	 1	 -30.0	 30.0;
	56	 41	 0.553	 0.549	 0.0	 38	 38	 38	 0.0	 0.0	 1	 -30.0	 30.0;
	57	 56	 0.174	 0.26	 0.0	 94	 94	 94	 0.0	 0.0	 1	 -30.0	 30.0;
	9	 55	 0.0	 0.1205	 0.0	 244	 244	 244	 0.0	 0.0	 1	 -30.0	 30.0;
];

% INFO    : === Translation Options ===
% INFO    : Phase Angle Bound:           30.0 (deg.)
% INFO    : Line Capacity Model:         ub
% INFO    : Gen Reactive Capacity Model: am50ag
% INFO    : Line Capacity PAB:           15.0 (deg.)
% INFO    : 
% INFO    : === Generator Classification Notes ===
% INFO    : SYNC   3   -     0.00
% INFO    : COW    1   -    13.88
% INFO    : NG     3   -    86.12
% INFO    : 
% INFO    : === Generator Reactive Capacity Atmost Max 50 Percent Active Model Notes ===
% INFO    : 
% INFO    : === Line Capacity UB Model Notes ===
% INFO    : Updated Thermal Rating: on line 1-2 : Rate A, Rate B, Rate C , 9900.0, 0.0, 0.0 -> 1005
% INFO    : Updated Thermal Rating: on line 2-3 : Rate A, Rate B, Rate C , 9900.0, 0.0, 0.0 -> 326
% INFO    : Updated Thermal Rating: on line 3-4 : Rate A, Rate B, Rate C , 9900.0, 0.0, 0.0 -> 767
% INFO    : Updated Thermal Rating: on line 4-5 : Rate A, Rate B, Rate C , 9900.0, 0.0, 0.0 -> 201
% INFO    : Updated Thermal Rating: on line 4-6 : Rate A, Rate B, Rate C , 9900.0, 0.0, 0.0 -> 191
% INFO    : Updated Thermal Rating: on line 6-7 : Rate A, Rate B, Rate C , 9900.0, 0.0, 0.0 -> 283
% INFO    : Updated Thermal Rating: on line 8-9 : Rate A, Rate B, Rate C , 9900.0, 0.0, 0.0 -> 570
% INFO    : Updated Thermal Rating: on line 9-13 : Rate A, Rate B, Rate C , 9900.0, 0.0, 0.0 -> 178
% INFO    : Updated Thermal Rating: on line 13-15 : Rate A, Rate B, Rate C , 9900.0, 0.0, 0.0 -> 323
% INFO    : Updated Thermal Rating: on line 1-15 : Rate A, Rate B, Rate C , 9900.0, 0.0, 0.0 -> 317
% INFO    : Updated Thermal Rating: on line 1-16 : Rate A, Rate B, Rate C , 9900.0, 0.0, 0.0 -> 140
% INFO    : Updated Thermal Rating: on line 1-17 : Rate A, Rate B, Rate C , 9900.0, 0.0, 0.0 -> 266
% INFO    : Updated Thermal Rating: on line 4-18 : Rate A, Rate B, Rate C , 9900.0, 0.0, 0.0 -> 53
% INFO    : Updated Thermal Rating: on line 10-12 : Rate A, Rate B, Rate C , 9900.0, 0.0, 0.0 -> 228
% INFO    : Updated Thermal Rating: on line 11-13 : Rate A, Rate B, Rate C , 9900.0, 0.0, 0.0 -> 384
% INFO    : Updated Thermal Rating: on line 12-16 : Rate A, Rate B, Rate C , 9900.0, 0.0, 0.0 -> 353
% INFO    : Updated Thermal Rating: on line 14-15 : Rate A, Rate B, Rate C , 9900.0, 0.0, 0.0 -> 512
% INFO    : Updated Thermal Rating: on line 18-19 : Rate A, Rate B, Rate C , 9900.0, 0.0, 0.0 -> 36
% INFO    : Updated Thermal Rating: on line 19-20 : Rate A, Rate B, Rate C , 9900.0, 0.0, 0.0 -> 57
% INFO    : Updated Thermal Rating: on line 21-22 : Rate A, Rate B, Rate C , 9900.0, 0.0, 0.0 -> 213
% INFO    : Updated Thermal Rating: on line 22-23 : Rate A, Rate B, Rate C , 9900.0, 0.0, 0.0 -> 1617
% INFO    : Updated Thermal Rating: on line 23-24 : Rate A, Rate B, Rate C , 9900.0, 0.0, 0.0 -> 97
% INFO    : Updated Thermal Rating: on line 24-25 : Rate A, Rate B, Rate C , 9900.0, 0.0, 0.0 -> 25
% INFO    : Updated Thermal Rating: on line 24-26 : Rate A, Rate B, Rate C , 9900.0, 0.0, 0.0 -> 621
% INFO    : Updated Thermal Rating: on line 27-28 : Rate A, Rate B, Rate C , 9900.0, 0.0, 0.0 -> 259
% INFO    : Updated Thermal Rating: on line 28-29 : Rate A, Rate B, Rate C , 9900.0, 0.0, 0.0 -> 408
% INFO    : Updated Thermal Rating: on line 7-29 : Rate A, Rate B, Rate C , 9900.0, 0.0, 0.0 -> 453
% INFO    : Updated Thermal Rating: on line 25-30 : Rate A, Rate B, Rate C , 9900.0, 0.0, 0.0 -> 121
% INFO    : Updated Thermal Rating: on line 31-32 : Rate A, Rate B, Rate C , 9900.0, 0.0, 0.0 -> 33
% INFO    : Updated Thermal Rating: on line 32-33 : Rate A, Rate B, Rate C , 9900.0, 0.0, 0.0 -> 552
% INFO    : Updated Thermal Rating: on line 34-32 : Rate A, Rate B, Rate C , 9900.0, 0.0, 0.0 -> 31
% INFO    : Updated Thermal Rating: on line 34-35 : Rate A, Rate B, Rate C , 9900.0, 0.0, 0.0 -> 313
% INFO    : Updated Thermal Rating: on line 35-36 : Rate A, Rate B, Rate C , 9900.0, 0.0, 0.0 -> 427
% INFO    : Updated Thermal Rating: on line 36-37 : Rate A, Rate B, Rate C , 9900.0, 0.0, 0.0 -> 629
% INFO    : Updated Thermal Rating: on line 37-38 : Rate A, Rate B, Rate C , 9900.0, 0.0, 0.0 -> 245
% INFO    : Updated Thermal Rating: on line 37-39 : Rate A, Rate B, Rate C , 9900.0, 0.0, 0.0 -> 655
% INFO    : Updated Thermal Rating: on line 22-38 : Rate A, Rate B, Rate C , 9900.0, 0.0, 0.0 -> 834
% INFO    : Updated Thermal Rating: on line 11-41 : Rate A, Rate B, Rate C , 9900.0, 0.0, 0.0 -> 40
% INFO    : Updated Thermal Rating: on line 41-42 : Rate A, Rate B, Rate C , 9900.0, 0.0, 0.0 -> 72
% INFO    : Updated Thermal Rating: on line 38-44 : Rate A, Rate B, Rate C , 9900.0, 0.0, 0.0 -> 450
% INFO    : Updated Thermal Rating: on line 15-45 : Rate A, Rate B, Rate C , 9900.0, 0.0, 0.0 -> 282
% INFO    : Updated Thermal Rating: on line 14-46 : Rate A, Rate B, Rate C , 9900.0, 0.0, 0.0 -> 400
% INFO    : Updated Thermal Rating: on line 46-47 : Rate A, Rate B, Rate C , 9900.0, 0.0, 0.0 -> 409
% INFO    : Updated Thermal Rating: on line 48-49 : Rate A, Rate B, Rate C , 9900.0, 0.0, 0.0 -> 191
% INFO    : Updated Thermal Rating: on line 49-50 : Rate A, Rate B, Rate C , 9900.0, 0.0, 0.0 -> 195
% INFO    : Updated Thermal Rating: on line 10-51 : Rate A, Rate B, Rate C , 9900.0, 0.0, 0.0 -> 412
% INFO    : Updated Thermal Rating: on line 13-49 : Rate A, Rate B, Rate C , 9900.0, 0.0, 0.0 -> 154
% INFO    : Updated Thermal Rating: on line 29-52 : Rate A, Rate B, Rate C , 9900.0, 0.0, 0.0 -> 125
% INFO    : Updated Thermal Rating: on line 53-54 : Rate A, Rate B, Rate C , 9900.0, 0.0, 0.0 -> 99
% INFO    : Updated Thermal Rating: on line 54-55 : Rate A, Rate B, Rate C , 9900.0, 0.0, 0.0 -> 103
% INFO    : Updated Thermal Rating: on line 11-43 : Rate A, Rate B, Rate C , 9900.0, 0.0, 0.0 -> 192
% INFO    : Updated Thermal Rating: on line 44-45 : Rate A, Rate B, Rate C , 9900.0, 0.0, 0.0 -> 212
% INFO    : Updated Thermal Rating: on line 40-56 : Rate A, Rate B, Rate C , 9900.0, 0.0, 0.0 -> 25
% INFO    : Updated Thermal Rating: on line 56-41 : Rate A, Rate B, Rate C , 9900.0, 0.0, 0.0 -> 38
% INFO    : Updated Thermal Rating: on line 57-56 : Rate A, Rate B, Rate C , 9900.0, 0.0, 0.0 -> 94
% INFO    : Updated Thermal Rating: on line 9-55 : Rate A, Rate B, Rate C , 9900.0, 0.0, 0.0 -> 244
% INFO    : 
% INFO    : === Writing Matpower Case File Notes ===
